Circuit: * C:\Users\lamtu\OneDrive\Documents\My_Projects\GrandPrIEEE\Spice Parts\Audio Amplifier\Audio Amplifier.asc

Direct Newton iteration for .op point succeeded.

Date: Mon Apr 26 15:38:40 2021
Total elapsed time: 0.160 seconds.

tnom = 27
temp = 27
method = trap
totiter = 4
traniter = 0
tranpoints = 0
accept = 0
rejected = 0
matrix size = 8
fillins = 0
solver = Alternate
Matrix Compiler1:      20 opcodes
Matrix Compiler2: 676 bytes object code size
