Circuit: * C:\Users\lamtu\OneDrive\Documents\My_Projects\GrandPrIEEE\Spice Parts\LM317\Draft1.asc

.OP point found by inspection.

Date: Sun Apr 25 14:02:54 2021
Total elapsed time: 1.445 seconds.

tnom = 27
temp = 27
method = modified trap
totiter = 31908
traniter = 31908
tranpoints = 11200
accept = 7745
rejected = 3455
matrix size = 68
fillins = 88
solver = Alternate
Thread vector: 40.7/24.5[2] 12.9/8.6[2] 5.6/4.3[2] 2.4/3.4[1]  2592/500
Matrix Compiler1: 21.23 KB object code size  7.6/5.7/[3.8]
Matrix Compiler2: 10.61 KB object code size  2.5/3.0/[1.9]

